Circuit: * D:\hdd\STM8_StepMotorTester\Proteus\CA3240E.asc

Direct Newton iteration for .op point succeeded.

Date: Thu May 28 21:43:06 2020
Total elapsed time: 0.219 seconds.

tnom = 27
temp = 27
method = trap
totiter = 11
traniter = 0
tranpoints = 0
accept = 0
rejected = 0
matrix size = 19
fillins = 1
solver = Normal
Matrix Compiler1:      75 opcodes
Matrix Compiler2: 1.77 KB object code size
